26

 C                  0.86142339   -0.54089681    0.07332366
 C                  2.17901716   -0.12489265    0.04048549
 C                  2.50186126    1.21315528   -0.09869335
 C                  1.48706020    2.13146638   -0.21224988
 C                  0.14426141    1.73754204   -0.18571353
 C                 -0.17150854    0.37221238   -0.03051819
 H                  0.64686340   -1.59237429    0.19316480
 H                  3.53811069    1.51397218   -0.11942959
 H                  1.72386845    3.18138407   -0.32912040
 N                  3.24298657   -1.11110280    0.15694827
 O                  4.39159006   -0.71249180    0.13703455
 O                  2.92807782   -2.28035664    0.26629140
 N                 -0.83842593    2.68633646   -0.29519725
 H                 -0.58033415    3.58798138   -0.65515241
 H                 -1.77294713    2.38421077   -0.50978031
 C                 -1.57772190   -0.10455148   -0.00111648
 C                 -2.00382570   -1.08526298   -0.89224425
 C                 -2.48882904    0.38769926    0.93073168
 C                 -3.30309682   -1.56129635   -0.85437513
 H                 -1.30813238   -1.47414703   -1.62460304
 C                 -3.78819188   -0.08848499    0.96896141
 H                 -2.16980257    1.13624167    1.64448300
 C                 -4.19996885   -1.06330715    0.07546957
 H                 -3.61556645   -2.32341486   -1.55600346
 H                 -4.47896072    0.29764245    1.70699579
 H                 -5.21525089   -1.43564206    0.10621480
