18

 C                 -0.11695722   -0.83978612   -0.00272842
 C                 -1.14941795    0.07375254   -0.00073140
 C                 -0.90112734    1.43859762    0.00152623
 C                  0.39509080    1.88794058    0.00005000
 C                  1.46930794    0.98869027   -0.00357483
 C                  1.19631013   -0.39782613   -0.00344353
 H                 -0.33704582   -1.89618768   -0.00218391
 H                 -1.73214682    2.12740707    0.00405485
 H                  0.59735887    2.95105506   -0.00117204
 N                 -2.52439994   -0.40385527    0.00075893
 O                 -3.41232760    0.42654080    0.00441804
 O                 -2.71022004   -1.60470730   -0.00165101
 N                  2.74994354    1.43222446   -0.02470211
 H                  2.95121513    2.40737575    0.09245081
 H                  3.50560865    0.77622894    0.06701585
 C                  2.28129946   -1.32159968    0.00008332
 C                  3.22157773   -2.06275744    0.00512595
 H                  4.04008464   -2.74120123    0.00745653

