19

 C                 -0.50845569   -0.61765660    0.00764771
 C                 -1.66413544    0.13336512    0.00080146
 C                 -1.61508477    1.51832765   -0.00738011
 C                 -0.39763818    2.14826826   -0.00601357
 C                  0.80086521    1.41893499    0.00312497
 C                  0.71897748    0.01210158    0.00758211
 H                 -0.57584390   -1.69426969    0.01254133
 H                 -2.53613303    2.08138817   -0.01272197
 H                 -0.35076363    3.22941145   -0.01202514
 N                 -2.95461264   -0.54147439    0.00236710
 O                 -3.95283739    0.15125541   -0.00505558
 O                 -2.96056246   -1.75585943    0.01108645
 N                  1.98671267    2.07908995   -0.01667975
 H                  1.99217075    3.07658170    0.09056750
 H                  2.85395791    1.60144925    0.14528371
 C                  1.96845692   -0.81169466   -0.00479541
 F                  2.69669162   -0.60712965   -1.12011333
 F                  2.78637353   -0.49953024    1.02748459
 F                  1.72595677   -2.11899742    0.07290575

