17

 C                 -0.13372273   -0.85728988   -0.00000102
 C                 -1.13724146    0.08338520   -0.00000139
 C                 -0.84826671    1.44228709   -0.00000257
 C                  0.45649332    1.86132949   -0.00000336
 C                  1.51053085    0.93535896   -0.00000131
 C                  1.18749191   -0.43917474   -0.00000047
 H                 -0.38009315   -1.90822027   -0.00000151
 H                 -1.66161357    2.15226268   -0.00000266
 H                  0.68437768    2.91893322   -0.00000705
 N                 -2.52690234   -0.35531706    0.00000043
 O                 -3.38756182    0.50170750    0.00001757
 O                 -2.74359238   -1.54979785   -0.00001512
 N                  2.79831370    1.34266408   -0.00000513
 H                  3.02655820    2.31892296    0.00000177
 H                  3.55278301    0.67827138    0.00001071
 C                  2.25598170   -1.38296715    0.00000378
 N                  3.16853437   -2.07777858    0.00000715
