17

 C                  0.08228939    0.97618702   -0.00218017
 C                  0.93481354   -0.11973145   -0.00135882
 C                  0.44834941   -1.41034870   -0.00009094
 C                 -0.91727871   -1.60947652   -0.00234561
 C                 -1.80296918   -0.53508129   -0.00581892
 C                 -1.27232525    0.76677774   -0.00392156
 H                  0.49927103    1.97363972    0.00111146
 H                  1.13718931   -2.24056035    0.00193989
 H                 -1.31394782   -2.61648467   -0.00625017
 N                  2.37106166    0.11021766    0.00142440
 O                  3.10429843   -0.85866837    0.00497270
 O                  2.76197535    1.26283873    0.00034861
 N                 -3.15908665   -0.69741036   -0.04625466
 H                 -3.54545483   -1.59279456    0.19151713
 H                 -3.73182798    0.10597875    0.14458332
 O                 -2.19265894    1.77561018    0.00276096
 H                 -1.75524863    2.63236481    0.01054821

