16

   C       -0.02068       -1.20510       -0.00271
   C       -0.70203       -0.00000       -0.00150
   C       -0.02068        1.20510       -0.00272
   C        1.35458        1.20435       -0.00475
   C        2.06648        0.00000       -0.00497
   C        1.35459       -1.20435       -0.00474
   H       -0.57896       -2.12895       -0.00132
   H       -0.57896        2.12895       -0.00133
   H        1.89350        2.14312       -0.00934
   H        1.89350       -2.14311       -0.00932
   N       -2.15719       -0.00000        0.00260
   O       -2.72638        1.07438        0.00435
   O       -2.72638       -1.07438        0.00432
   N        3.43637       -0.00000       -0.04400
   H        3.92258        0.84853        0.18512
   H        3.92257       -0.84853        0.18512
