18

 C    0.0277172    1.0163625    0.6732720
 C   -0.4588668    1.5413099   -0.5091922
 C   -0.6954862    0.7440591   -1.6210569
 C   -0.4394713   -0.6124429   -1.5362715
 C    0.0502582   -1.1878613   -0.3588517
 C    0.2879327   -0.3507614    0.7522517
 H    0.2087694    1.6599764    1.5237543
 H   -1.0744055    1.1889795   -2.5311402
 H   -0.6285479   -1.2466650   -2.3960619
 N   -0.7284522    2.9744808   -0.5899284
 O   -1.1493078    3.4147163   -1.6576600
 O   -0.5183585    3.6527088    0.4129666
 N    0.2492322   -2.5424175   -0.2574565
 H    0.3686955   -3.0565440   -1.1168057
 H    0.8208088   -2.8590521    0.5139484
 C    0.8024151   -0.9267293    1.9453513
 C    1.2464611   -1.4796237    2.9341852
 H    1.6306058   -1.9304963    3.8186956
