17

 C    0.0611895    0.8740529    0.9461734
 C   -0.2790379    1.4536028   -0.2598276
 C   -0.4210662    0.7001638   -1.4180058
 C   -0.2204269   -0.6659882   -1.3627818
 C    0.1216609   -1.3027617   -0.1629566
 C    0.2642875   -0.5023000    0.9877164
 H    0.1723146    1.4796235    1.8357843
 H   -0.6862352    1.1898624   -2.3453941
 H   -0.3368977   -1.2606968   -2.2624104
 N   -0.4929639    2.8985286   -0.3162031
 O   -0.7879458    3.3845183   -1.4051010
 O   -0.3641724    3.5329429    0.7271178
 N    0.2658951   -2.6608582   -0.0931039
 H    0.4127895   -3.1645857   -0.9535622
 H    0.7127154   -3.0550009    0.7231110
 C    0.6325153   -1.1474015    2.2037298
 N    0.9453781   -1.7537022    3.1557137
