16

 C   -0.0099996    0.7062612    1.1806899
 C   -0.1662509    1.3471074   -0.0410214
 C   -0.1843270    0.6487196   -1.2379677
 C   -0.0449712   -0.7307445   -1.2108045
 C    0.1136329   -1.4236279   -0.0082304
 C    0.1271086   -0.6623006    1.1636043
 H    0.0084282    1.2567258    2.1111890
 H   -0.3067176    1.1829651   -2.1698362
 H   -0.0646699   -1.2901942   -2.1399213
 N   -0.3119585    2.7991664   -0.0545587
 O   -0.4442280    3.3479506   -1.1460911
 O   -0.2929681    3.3831314    1.0269023
 N    0.1935303   -2.7978310    0.0597000
 H    0.5192486   -3.2654876   -0.7729425
 H    0.5734863   -3.1756845    0.9155869
 F    0.2906558   -1.3261572    2.3237016
