20

 C   -0.1460506    0.7676006    0.5073917
 C   -0.3130568    1.5263763   -0.6468370
 C   -0.2501537    0.9717505   -1.9127767
 C   -0.0154474   -0.3921247   -2.0236583
 C    0.1546352   -1.1944272   -0.8976537
 C    0.0897437   -0.5917157    0.3755662
 H   -0.2000145    1.2569960    1.4683014
 H   -0.3833856    1.5962649   -2.7849997
 H    0.0303850   -0.8509208   -3.0058530
 N   -0.5595232    2.9555918   -0.5033706
 O   -0.6997266    3.6192618   -1.5290538
 O   -0.6129013    3.4167621    0.6368734
 N    0.3283982   -2.5592553   -0.9784609
 H    0.7086667   -2.9111399   -1.8443483
 H    0.7035939   -2.9965905   -0.1486803
 O    0.2814041   -1.4479593    1.4118367
 C    0.2285860   -0.8849589    2.7168302
 H    0.4018057   -1.7095156    3.4026006
 H    1.0049595   -0.1275354    2.8461484
 H   -0.7519184   -0.4444607    2.9101436
